12
Lattice="5.136475506554316 0.0 0.0 0.0 5.19341333754447 0.0 -0.883442968274303 0.0 5.246159804521277" Properties=species:S:1:pos:R:3:forces:R:3 energy=-111.32148880965283 pbc="T T T"
Hf       0.79296806       2.37891959       3.71379301      -0.00316117      -0.05048969       0.01147394
Hf       3.01834094       4.97562678       4.15544259       0.00315856      -0.05049413      -0.01143432
Hf       3.46006345       2.81449477       1.53236422       0.00315344       0.05049056      -0.01147334
Hf       1.23469006       0.21778759       1.09071465      -0.00315725       0.05049331       0.01143375
O        1.43661056       3.85624494       5.13377423      -0.05755899       0.06195063       0.19018501
O        2.37469844       1.25953776       2.73546188       0.05757024       0.06195130      -0.19017683
O        2.81642044       1.33716942       0.11238300       0.05755963      -0.06195050      -0.19018486
O        1.87833256       3.93387661       2.51069536      -0.05756956      -0.06195196       0.19017663
O        0.04523848       1.71776788       1.81649659      -0.32809291      -0.04836829      -0.01913733
O        4.64951503       4.31447506       0.80658229       0.32807667      -0.04838008       0.01910704
O        4.20779252       3.47564649       3.42966065       0.32809598       0.04836670       0.01913820
O       -0.39648403       0.87893931       4.43957495      -0.32807463       0.04838214      -0.01910790
12
Lattice="5.136475506554316 0.0 0.0 0.0 5.19341333754447 0.0 -0.883442968274303 0.0 5.246159804521277" Properties=species:S:1:pos:R:3:forces:R:3 energy=-111.02796144846563 pbc="T T T"
Hf       0.76679960       2.35773240       3.75134507       1.50066828      -0.22868799      -0.90813345
Hf       3.05098809       4.97140580       4.13859741      -0.25592941      -0.32157043       0.25599115
Hf       3.46438386       2.82225473       1.55925929      -0.27290908       0.34826894      -0.23015835
Hf       1.22668425       0.24158787       1.04773536       0.26022070      -0.00484407       0.30315981
O        2.29699412       3.80284682       0.03480739       0.27596901       0.67006910       0.34320273
O        2.30225009       1.38329303       2.41968561      -0.16149927      -0.26107173       1.38560868
O        2.19187962       1.35553712       5.11971771      -0.79736027       0.08830060      -0.02964692
O        1.72585294       4.09864731       2.67309149       0.65219744      -0.32754749       0.76419691
O       -0.12587639       1.60641996       1.91689648       0.74628411      -0.64100490      -0.96134423
O        4.67597346       4.32564976       0.83281730       0.17355111      -0.48090882      -0.57335925
O        4.20650479       3.34566310       3.48988359      -1.53559362       1.35009107       0.21508473
O       -0.29261743       0.78696582       4.44615747      -0.58559901      -0.19109429      -0.56460181
12
Lattice="5.136475506554316 0.0 0.0 0.0 5.19341333754447 0.0 -0.883442968274303 0.0 5.246159804521277" Properties=species:S:1:pos:R:3:forces:R:3 energy=-110.73373490211277 pbc="T T T"
Hf       0.78609010       2.39256701       3.56811250      -0.26654362      -1.68614222       0.54937744
Hf       2.99409321       4.93278185       4.24024894       1.20244362       0.99191127       0.10578031
Hf       3.43807296       2.88867254       1.60134629      -0.07947450      -1.27349343      -1.35341051
Hf       1.27007814       0.17323772       1.10162944      -0.86432791       1.74524265      -0.53333940
O        2.34534697       3.99705589       0.15103384       0.17423725      -0.61955379      -0.60540202
O        2.40555706       1.20992349       2.46754820      -0.38832913       0.48676153      -0.22035904
O        2.17727305       1.53269947       4.94914551      -1.16617854       0.12168737       1.25560769
O        1.87983688       4.00056488       2.75581834      -1.53413367      -0.83005122      -0.26081456
O       -0.13534280       1.64889930       1.72290035       1.23764288      -0.22989069       1.54418246
O        4.70139558       4.27486794       0.82654133       0.33470656      -0.58320417       0.07916855
O        4.16106625       3.34730452       3.44966668       0.71053933       0.91087419       0.59831181
O       -0.32522858       0.75754039       4.44975139       0.63941773       0.96585851      -1.15910273
12
Lattice="5.136475506554316 0.0 0.0 0.0 5.19341333754447 0.0 -0.883442968274303 0.0 5.246159804521277" Properties=species:S:1:pos:R:3:forces:R:3 energy=-110.73902473955333 pbc="T T T"
Hf       0.76921180       2.31504650       3.79087086       1.38004858       1.81038290      -1.97752421
Hf       3.02483892       4.98281148       4.15227313       0.10521042      -1.01059973      -0.32042589
Hf       3.45419640       2.78637061       1.48976987       0.46943732       0.31902488       1.11660372
Hf       1.23060372       0.31423306       1.07068675       0.08674402      -2.25414631       0.06344898
O        2.29678092       3.64336786       0.04051800      -0.81330998       0.69757767      -1.13811691
O        2.39591858       1.29306330       2.57510213       0.50367212      -0.12895836       1.37693069
O        2.90713644       1.17601287       0.08399555      -0.40374598       0.16218892      -0.80629943
O        1.92565514       3.96172910       2.47166624       0.56032952       0.30724735       1.36869175
O        0.07560308       1.71180594       1.79896311      -1.07736261       1.15645293       0.39315550
O        4.64403768       4.31447189       0.82185331       0.77831640       0.78016917      -0.80518368
O        4.37176732       3.60282751       3.39037007      -0.14547373      -0.92761314       0.23032624
O       -0.41775014       0.94059835       4.43008888      -1.44386609      -0.91172628       0.49839324
12
Lattice="5.136475506554316 0.0 0.0 0.0 5.19341333754447 0.0 -0.883442968274303 0.0 5.246159804521277" Properties=species:S:1:pos:R:3:forces:R:3 energy=-110.73888665415537 pbc="T T T"
Hf       0.81745427       2.44254413       3.64890566      -0.04767435      -1.83199532       0.83410232
Hf       3.01475275       5.00765126       4.17049043       0.24935654      -0.22590641       0.02182863
Hf       3.49517468       2.83852592       1.57320139      -0.25498743      -2.01573720      -1.03142757
Hf       1.17811346       0.14171229       1.08790177       2.05429419       1.51546421      -0.39844968
O        1.34723386       3.83810823       5.22555343       0.93114686       0.20887013       0.12288687
O        2.35331259       1.12567649       2.59951318       0.27729125       0.01635320       0.14929945
O        1.99757976       1.32351103       5.17696345       0.09065556       0.69416887       0.06475446
O        2.02154146       3.83604348       2.57281847      -1.31333679       0.65664232       0.27393487
O       -0.02268003       1.56986327       1.89119459      -0.83485945       1.61857050       0.13016057
O        4.68706429       4.29995898       0.94369275      -1.43817152      -0.57685064      -1.08225515
O        4.16450227       3.37677250       3.46327227       0.88009727       0.55967552       0.97166998
O       -0.41354369       0.91725342       4.48959510      -0.59381212      -0.61925518      -0.05650474
12
Lattice="5.136475506554316 0.0 0.0 0.0 5.19341333754447 0.0 -0.883442968274303 0.0 5.246159804521277" Properties=species:S:1:pos:R:3:forces:R:3 energy=-110.62410810342104 pbc="T T T"
Hf       0.71669226       2.34748196       3.63053562       0.05544242      -0.41323295       0.76643842
Hf       3.04625647       4.90208009       4.22911569      -0.48946778       0.82505975      -0.26140755
Hf       3.42658208       2.87148755       1.53517578      -0.05120406      -0.49048611       0.44877203
Hf       1.35294899       0.29685678       1.07441655      -1.95600650      -1.51149238       0.14222019
O        1.50121198       3.84638808       5.18623889      -0.21379821       0.91869715       0.29841257
O        2.31672213       1.32780644       2.54051494      -0.50759857       0.45700551       0.90508982
O        2.92122566       1.46816873       0.01677948      -0.36927152      -0.70482103      -1.25394116
O        1.72736836       4.01775102       2.58527653       0.03500281      -0.06498869       1.08999989
O       -0.27084757       1.49157749       1.95334762       2.21832172       0.14881488      -0.36626849
O        4.79314571       4.22254039       0.85842655      -0.04893951      -0.41327625      -0.20746348
O        4.01276171       3.30645009       3.55436721       1.02635590      -0.60674785      -0.03403459
O       -0.39574696       0.74626291       4.54706321       0.30116330       1.85546797      -1.52781764
