2
Lattice="3.0321975749415837 0.0 0.0 0.0 3.0321975749415837 0.0 0.0 0.0 3.0321975749415837" Properties=species:S:1:pos:R:3 pbc="T T T"
Hf       0.00000000       0.00000000       0.00000000
Hf       1.51609879       1.51609879       1.51609879
2
Lattice="3.0321975749415837 0.0 0.0 0.0 3.0321975749415837 0.0 0.0 0.0 3.0321975749415837" Properties=species:S:1:pos:R:3 pbc="T T T"
Hf       3.00593846       3.00593846       3.00593846
Hf       1.54235790       1.54235790       1.54235790
2
Lattice="3.0321975749415837 0.0 0.0 0.0 3.0321975749415837 0.0 0.0 0.0 3.0321975749415837" Properties=species:S:1:pos:R:3 pbc="T T T"
Hf       3.03211250       3.03211250       3.03211250
Hf       1.51618386       1.51618386       1.51618386
2
Lattice="3.0321975749415837 0.0 0.0 0.0 3.0321975749415837 0.0 0.0 0.0 3.0321975749415837" Properties=species:S:1:pos:R:3 pbc="T T T"
Hf       0.04584788       0.04584788       0.04584788
Hf       1.47025091       1.47025091       1.47025091
2
Lattice="3.0321975749415837 0.0 0.0 0.0 3.0321975749415837 0.0 0.0 0.0 3.0321975749415837" Properties=species:S:1:pos:R:3 pbc="T T T"
Hf       3.03101690       3.03101690       3.03101690
Hf       1.51727946       1.51727946       1.51727946
2
Lattice="3.0321975749415837 0.0 0.0 0.0 3.0321975749415837 0.0 0.0 0.0 3.0321975749415837" Properties=species:S:1:pos:R:3 pbc="T T T"
Hf       3.00130310       3.00130310       3.00130310
Hf       1.54699326       1.54699326       1.54699326
