110
Lattice="9.047430736655434 0.0 0.0 0.0 9.047430736655434 0.0 0.0 0.0 26.458860890475076" Properties=species:S:1:pos:R:3:forces:R:3:charge:R:1 simulation_info=3-doped energy=-1480190.9736729292 pbc="T T T"
Mg       0.00000000       0.00000000      10.58354436       0.00000000       0.00000000       0.00000000       0.42306077
O        1.50790512       1.50790512      10.58354436       0.00000000       0.00000000       0.00000000      -0.39863471
O        0.00000000       0.00000000      12.71604423       0.00000000       0.00000000       0.00000000      -0.34205895
Mg       1.50790512       1.50790512      12.71604423       0.00000000       0.00000000       0.00000000       0.33123310
Mg       0.00000000       0.00000000      14.84854410       0.00000000       0.00000000       0.00000000       0.34192128
O        1.50790512       1.50790512      14.84854410       0.00000000       0.00000000       0.00000000      -0.33971919
O        0.00000000       0.00000000      16.98104398       0.00000000       0.00000000       0.00000000      -0.30640448
Mg       1.50790512       1.50790512      16.98104398       0.00000000       0.00000000       0.00000000       0.33367860
Al       0.00000000       0.00000000      19.11354385       0.00000000       0.00000000       0.00000000       0.40942194
O        1.50790512       1.50790512      19.11354385       0.00000000       0.00000000       0.00000000      -0.28916741
O        0.00000000       0.00000000      21.24604373       0.00000000       0.00000000       0.00000000      -0.36113597
Mg       1.50790512       1.50790512      21.24604373       0.00000000       0.00000000       0.00000000       0.37531487
Mg       0.00000000       3.01581024      10.58354436       0.00000000       0.00000000       0.00000000       0.42301400
O        1.50790512       4.52371536      10.58354436       0.00000000       0.00000000       0.00000000      -0.39651463
O        0.00000000       3.01581024      12.71604423       0.00000000       0.00000000       0.00000000      -0.34204698
Mg       1.50790512       4.52371536      12.71604423       0.00000000       0.00000000       0.00000000       0.33047356
Mg       0.00000000       3.01581024      14.84854410       0.00000000       0.00000000       0.00000000       0.33804995
O        1.50790512       4.52371536      14.84854410       0.00000000       0.00000000       0.00000000      -0.33973576
O        0.00000000       3.01581024      16.98104398       0.00000000       0.00000000       0.00000000      -0.34407340
Mg       1.50790512       4.52371536      16.98104398       0.00000000       0.00000000       0.00000000       0.33419116
Mg       0.00000000       3.01581024      19.11354385       0.00000000       0.00000000       0.00000000       0.32281495
O        1.50790512       4.52371536      19.11354385       0.00000000       0.00000000       0.00000000      -0.31396244
O        0.00000000       3.01581024      21.24604373       0.00000000       0.00000000       0.00000000      -0.40503363
Mg       1.50790512       4.52371536      21.24604373       0.00000000       0.00000000       0.00000000       0.38579684
Mg       0.00000000       6.03162048      10.58354436       0.00000000       0.00000000       0.00000000       0.40559499
O        1.50790512       7.53952561      10.58354436       0.00000000       0.00000000       0.00000000      -0.39651413
O        0.00000000       6.03162048      12.71604423       0.00000000       0.00000000       0.00000000      -0.34178138
Mg       1.50790512       7.53952561      12.71604423       0.00000000       0.00000000       0.00000000       0.33047319
Mg       0.00000000       6.03162048      14.84854410       0.00000000       0.00000000       0.00000000       0.33804239
O        1.50790512       7.53952561      14.84854410       0.00000000       0.00000000       0.00000000      -0.33973292
O        0.00000000       6.03162048      16.98104398       0.00000000       0.00000000       0.00000000      -0.34404952
Mg       1.50790512       7.53952561      16.98104398       0.00000000       0.00000000       0.00000000       0.33418993
Mg       0.00000000       6.03162048      19.11354385       0.00000000       0.00000000       0.00000000       0.32281586
O        1.50790512       7.53952561      19.11354385       0.00000000       0.00000000       0.00000000      -0.31396223
O        0.00000000       6.03162048      21.24604373       0.00000000       0.00000000       0.00000000      -0.40503038
Mg       1.50790512       7.53952561      21.24604373       0.00000000       0.00000000       0.00000000       0.38579544
Mg       3.01581024       0.00000000      10.58354436       0.00000000       0.00000000       0.00000000       0.41602477
O        4.52371536       1.50790512      10.58354436       0.00000000       0.00000000       0.00000000      -0.39843542
O        3.01581024       0.00000000      12.71604423       0.00000000       0.00000000       0.00000000      -0.34189353
Mg       4.52371536       1.50790512      12.71604423       0.00000000       0.00000000       0.00000000       0.33137446
Mg       3.01581024       0.00000000      14.84854410       0.00000000       0.00000000       0.00000000       0.33802680
O        4.52371536       1.50790512      14.84854410       0.00000000       0.00000000       0.00000000      -0.33977112
O        3.01581024       0.00000000      16.98104398       0.00000000       0.00000000       0.00000000      -0.34405501
Mg       4.52371536       1.50790512      16.98104398       0.00000000       0.00000000       0.00000000       0.33420515
Mg       3.01581024       0.00000000      19.11354385       0.00000000       0.00000000       0.00000000       0.32281591
O        4.52371536       1.50790512      19.11354385       0.00000000       0.00000000       0.00000000      -0.31396377
O        3.01581024       0.00000000      21.24604373       0.00000000       0.00000000       0.00000000      -0.40503106
Mg       4.52371536       1.50790512      21.24604373       0.00000000       0.00000000       0.00000000       0.38578981
Mg       3.01581024       3.01581024      10.58354436       0.00000000       0.00000000       0.00000000       0.41606753
O        4.52371536       4.52371536      10.58354436       0.00000000       0.00000000       0.00000000      -0.39534617
O        3.01581024       3.01581024      12.71604423       0.00000000       0.00000000       0.00000000      -0.34190402
Mg       4.52371536       4.52371536      12.71604423       0.00000000       0.00000000       0.00000000       0.32891707
Mg       3.01581024       3.01581024      14.84854410       0.00000000       0.00000000       0.00000000       0.34190014
O        4.52371536       4.52371536      14.84854410       0.00000000       0.00000000       0.00000000      -0.33948196
O        3.01581024       3.01581024      16.98104398       0.00000000       0.00000000       0.00000000      -0.30637871
Mg       4.52371536       4.52371536      16.98104398       0.00000000       0.00000000       0.00000000       0.33366267
Al       3.01581024       3.01581024      19.11354385       0.00000000       0.00000000       0.00000000       0.40943213
O        4.52371536       4.52371536      19.11354385       0.00000000       0.00000000       0.00000000      -0.28915934
O        3.01581024       3.01581024      21.24604373       0.00000000       0.00000000       0.00000000      -0.36113185
Mg       4.52371536       4.52371536      21.24604373       0.00000000       0.00000000       0.00000000       0.37537630
Mg       3.01581024       6.03162048      10.58354436       0.00000000       0.00000000       0.00000000       0.30575943
O        4.52371536       7.53952561      10.58354436       0.00000000       0.00000000       0.00000000      -0.39535878
O        3.01581024       6.03162048      12.71604423       0.00000000       0.00000000       0.00000000      -0.34001343
Mg       4.52371536       7.53952561      12.71604423       0.00000000       0.00000000       0.00000000       0.32875757
Mg       3.01581024       6.03162048      14.84854410       0.00000000       0.00000000       0.00000000       0.33776514
O        4.52371536       7.53952561      14.84854410       0.00000000       0.00000000       0.00000000      -0.33964130
O        3.01581024       6.03162048      16.98104398       0.00000000       0.00000000       0.00000000      -0.34403131
Mg       4.52371536       7.53952561      16.98104398       0.00000000       0.00000000       0.00000000       0.33417634
Mg       3.01581024       6.03162048      19.11354385       0.00000000       0.00000000       0.00000000       0.32281315
O        4.52371536       7.53952561      19.11354385       0.00000000       0.00000000       0.00000000      -0.31395896
O        3.01581024       6.03162048      21.24604373       0.00000000       0.00000000       0.00000000      -0.40502764
Mg       4.52371536       7.53952561      21.24604373       0.00000000       0.00000000       0.00000000       0.38582174
Mg       6.03162048       0.00000000      10.58354436       0.00000000       0.00000000       0.00000000       0.41602544
O        7.53952561       1.50790512      10.58354436       0.00000000       0.00000000       0.00000000      -0.39864229
O        6.03162048       0.00000000      12.71604423       0.00000000       0.00000000       0.00000000      -0.34189478
Mg       7.53952561       1.50790512      12.71604423       0.00000000       0.00000000       0.00000000       0.33107147
Mg       6.03162048       0.00000000      14.84854410       0.00000000       0.00000000       0.00000000       0.33802662
O        7.53952561       1.50790512      14.84854410       0.00000000       0.00000000       0.00000000      -0.33986971
O        6.03162048       0.00000000      16.98104398       0.00000000       0.00000000       0.00000000      -0.34405605
Mg       7.53952561       1.50790512      16.98104398       0.00000000       0.00000000       0.00000000       0.33419025
Mg       6.03162048       0.00000000      19.11354385       0.00000000       0.00000000       0.00000000       0.32281484
O        7.53952561       1.50790512      19.11354385       0.00000000       0.00000000       0.00000000      -0.31396675
O        6.03162048       0.00000000      21.24604373       0.00000000       0.00000000       0.00000000      -0.40503109
Mg       7.53952561       1.50790512      21.24604373       0.00000000       0.00000000       0.00000000       0.38576650
Mg       6.03162048       3.01581024      10.58354436       0.00000000       0.00000000       0.00000000       0.41602118
O        7.53952561       4.52371536      10.58354436       0.00000000       0.00000000       0.00000000      -0.39651541
O        6.03162048       3.01581024      12.71604423       0.00000000       0.00000000       0.00000000      -0.34189531
Mg       7.53952561       4.52371536      12.71604423       0.00000000       0.00000000       0.00000000       0.33047449
Mg       6.03162048       3.01581024      14.84854410       0.00000000       0.00000000       0.00000000       0.33802671
O        7.53952561       4.52371536      14.84854410       0.00000000       0.00000000       0.00000000      -0.33973915
O        6.03162048       3.01581024      16.98104398       0.00000000       0.00000000       0.00000000      -0.34405666
Mg       7.53952561       4.52371536      16.98104398       0.00000000       0.00000000       0.00000000       0.33419352
Mg       6.03162048       3.01581024      19.11354385       0.00000000       0.00000000       0.00000000       0.32281433
O        7.53952561       4.52371536      19.11354385       0.00000000       0.00000000       0.00000000      -0.31396239
O        6.03162048       3.01581024      21.24604373       0.00000000       0.00000000       0.00000000      -0.40503107
Mg       7.53952561       4.52371536      21.24604373       0.00000000       0.00000000       0.00000000       0.38579855
Mg       6.03162048       6.03162048      10.58354436       0.00000000       0.00000000       0.00000000       0.30579865
O        7.53952561       7.53952561      10.58354436       0.00000000       0.00000000       0.00000000      -0.39650733
O        6.03162048       6.03162048      12.71604423       0.00000000       0.00000000       0.00000000      -0.34001909
Mg       7.53952561       7.53952561      12.71604423       0.00000000       0.00000000       0.00000000       0.33063464
Mg       6.03162048       6.03162048      14.84854410       0.00000000       0.00000000       0.00000000       0.34164098
O        7.53952561       7.53952561      14.84854410       0.00000000       0.00000000       0.00000000      -0.33958165
O        6.03162048       6.03162048      16.98104398       0.00000000       0.00000000       0.00000000      -0.30633905
Mg       7.53952561       7.53952561      16.98104398       0.00000000       0.00000000       0.00000000       0.33367945
Al       6.03162048       6.03162048      19.11354385       0.00000000       0.00000000       0.00000000       0.40944715
O        7.53952561       7.53952561      19.11354385       0.00000000       0.00000000       0.00000000      -0.28916292
O        6.03162048       6.03162048      21.24604373       0.00000000       0.00000000       0.00000000      -0.36112600
Mg       7.53952561       7.53952561      21.24604373       0.00000000       0.00000000       0.00000000       0.37534878
Au       5.82941844       6.03148743       7.68796311      -0.00024436       0.00000969       0.00008614      -0.09088659
Au       3.21796933       6.03154838       7.68794259       0.00023011      -0.00001097       0.00013005      -0.09088447
