6
Lattice="10.956 0.0 0.0 0.0 10.956 0.0 0.0 0.0 10.629" Properties=species:S:1:pos:R:3:forces:R:3 stress="-0.012923599377989375 0.0020917755049543662 -0.003290913911455823 0.0020917755049543662 -0.00401174815969453 -0.0005282254646665732 -0.003290913911455823 -0.0005282254646665732 -0.006974845098176582" pbc="T T T" energy=-1063.43063871 free_energy=-1063.43063965 config_type=crystal 
Hf       1.94984261       1.61238948       2.24631150       0.54158435       2.27610944       3.88986899 
Hf       3.23109948       7.29175780      10.61018189       2.57998060       0.60182644      -1.44921094 
Hf       5.08674919       5.37435909       2.24306869       0.98860141       1.75589422       0.32084632 
O      10.50577490       9.58454808       1.64764232       1.04954600      -0.26969983      -0.97180103 
O       5.06986479       7.10863911       3.36524397       2.91173324      -0.16846145      -2.39757310 
O      10.82499834       5.57216660       4.05771556       0.64334331      -3.03519936      -0.83909237 
